<?xml version="1.0" encoding="utf-8"?>
<!DOCTYPE population SYSTEM "http://www.matsim.org/files/dtd/population_v5.dtd">

<population>

<!-- ====================================================================== -->

	<person id="12052000_12052000_0">
		<plan selected="yes">
			<act type="home" x="454788.14217382803" y="5735115.491572791" end_time="07:16:20" />
			<leg mode="car">
			</leg>
			<act type="work" x="451947.00656881003" y="5736160.56555245" end_time="14:55:41" />
			<leg mode="car">
			</leg>
			<act type="home" x="454788.14217382803" y="5735115.491572791" end_time="16:22:14" />
			<leg mode="car">
			</leg>
			<act type="shopping" x="455006.52115909086" y="5734909.411959048" end_time="17:41:13" />
			<leg mode="car">
			</leg>
			<act type="home" x="454788.14217382803" y="5735115.491572791" />
		</plan>

	</person>

<!-- ====================================================================== -->

	<person id="12052000_12052000_1">
		<plan selected="yes">
			<act type="home" x="455903.06702539005" y="5730103.746178518" end_time="07:19:34" />
			<leg mode="car">
			</leg>
			<act type="work" x="456388.92154028354" y="5734510.189661062" end_time="14:57:15" />
			<leg mode="car">
			</leg>
			<act type="home" x="455903.06702539005" y="5730103.746178518" />
		</plan>

	</person>

<!-- ====================================================================== -->

	<person id="12052000_12052000_10">
		<plan selected="yes">
			<act type="home" x="453482.5329881937" y="5737532.2543261545" end_time="08:28:41" />
			<leg mode="car">
			</leg>
			<act type="work" x="454405.6441843341" y="5734295.544695937" end_time="16:02:41" />
			<leg mode="car">
			</leg>
			<act type="home" x="453482.5329881937" y="5737532.2543261545" />
		</plan>

	</person>

<!-- ====================================================================== -->

	<person id="12052000_12052000_100">
		<plan selected="yes">
			<act type="home" x="454028.73456912086" y="5736860.826699184" end_time="08:15:14" />
			<leg mode="car">
			</leg>
			<act type="work" x="452252.8044083975" y="5729962.579788007" end_time="16:02:59" />
			<leg mode="car">
			</leg>
			<act type="home" x="454028.73456912086" y="5736860.826699184" />
		</plan>

	</person>

<!-- ====================================================================== -->

	<person id="12052000_12052000_1000">
		<plan selected="yes">
			<act type="home" x="453714.23944590375" y="5734294.511748257" end_time="07:40:25" />
			<leg mode="car">
			</leg>
			<act type="work" x="463994.2872585247" y="5737276.646929144" end_time="16:07:45" />
			<leg mode="car">
			</leg>
			<act type="home" x="453714.23944590375" y="5734294.511748257" end_time="17:25:33" />
			<leg mode="car">
			</leg>
			<act type="shopping" x="453659.09976084245" y="5734769.211665135" end_time="18:09:28" />
			<leg mode="car">
			</leg>
			<act type="home" x="453714.23944590375" y="5734294.511748257" />
		</plan>

	</person>

<!-- ====================================================================== -->

	<person id="12052000_12052000_1001">
		<plan selected="yes">
			<act type="home" x="451629.12612927984" y="5734252.037979559" end_time="06:54:58" />
			<leg mode="car">
			</leg>
			<act type="work" x="456360.0634873143" y="5732778.343556051" end_time="15:07:03" />
			<leg mode="car">
			</leg>
			<act type="home" x="451629.12612927984" y="5734252.037979559" />
		</plan>

	</person>

<!-- ====================================================================== -->

	<person id="12052000_12052000_1002">
		<plan selected="yes">
			<act type="home" x="454567.7673419709" y="5735269.102628146" end_time="07:19:26" />
			<leg mode="car">
			</leg>
			<act type="work" x="452646.64594873897" y="5729706.312284175" end_time="15:28:10" />
			<leg mode="car">
			</leg>
			<act type="home" x="454567.7673419709" y="5735269.102628146" end_time="16:55:03" />
			<leg mode="car">
			</leg>
			<act type="shopping" x="455006.52115909086" y="5734909.411959048" end_time="17:26:06" />
			<leg mode="car">
			</leg>
			<act type="home" x="454567.7673419709" y="5735269.102628146" />
		</plan>

	</person>

<!-- ====================================================================== -->

	<person id="12052000_12052000_1003">
		<plan selected="yes">
			<act type="home" x="454304.5904565242" y="5733044.211043378" end_time="06:50:06" />
			<leg mode="car">
			</leg>
			<act type="work" x="456954.35397567775" y="5735333.906262035" end_time="15:09:06" />
			<leg mode="car">
			</leg>
			<act type="home" x="454304.5904565242" y="5733044.211043378" end_time="16:33:36" />
			<leg mode="car">
			</leg>
			<act type="shopping" x="454160.3125213311" y="5734693.949894065" end_time="17:32:51" />
			<leg mode="car">
			</leg>
			<act type="home" x="454304.5904565242" y="5733044.211043378" />
		</plan>

	</person>

<!-- ====================================================================== -->

	<person id="12052000_12052000_1004">
		<plan selected="yes">
			<act type="home" x="454114.68423825584" y="5736705.892827102" end_time="06:44:57" />
			<leg mode="car">
			</leg>
			<act type="work" x="454174.4450366516" y="5734245.547125994" end_time="14:49:00" />
			<leg mode="car">
			</leg>
			<act type="home" x="454114.68423825584" y="5736705.892827102" end_time="16:14:43" />
			<leg mode="car">
			</leg>
			<act type="shopping" x="454706.35835333547" y="5737407.278172629" end_time="17:20:54" />
			<leg mode="car">
			</leg>
			<act type="home" x="454114.68423825584" y="5736705.892827102" />
		</plan>

	</person>

<!-- ====================================================================== -->

	<person id="12052000_12052000_1005">
		<plan selected="yes">
			<act type="home" x="455605.6635947757" y="5728393.139267473" end_time="07:41:17" />
			<leg mode="car">
			</leg>
			<act type="work" x="452209.51181174675" y="5729619.680211724" end_time="15:17:55" />
			<leg mode="car">
			</leg>
			<act type="home" x="455605.6635947757" y="5728393.139267473" end_time="16:20:12" />
			<leg mode="car">
			</leg>
			<act type="shopping" x="453094.89469849714" y="5729894.575056443" end_time="17:06:53" />
			<leg mode="car">
			</leg>
			<act type="home" x="455605.6635947757" y="5728393.139267473" />
		</plan>

	</person>

<!-- ====================================================================== -->

	<person id="12052000_12052000_1006">
		<plan selected="yes">
			<act type="home" x="455921.60987156024" y="5730325.250562869" end_time="07:22:26" />
			<leg mode="car">
			</leg>
			<act type="work" x="452572.4273720965" y="5736471.715964699" end_time="15:36:30" />
			<leg mode="car">
			</leg>
			<act type="home" x="455921.60987156024" y="5730325.250562869" />
		</plan>

	</person>

<!-- ====================================================================== -->

	<person id="12052000_12052000_1007">
		<plan selected="yes">
			<act type="home" x="451055.42504563194" y="5734951.539055572" end_time="08:14:24" />
			<leg mode="car">
			</leg>
			<act type="work" x="455997.4341242651" y="5734794.801502831" end_time="16:28:24" />
			<leg mode="car">
			</leg>
			<act type="home" x="451055.42504563194" y="5734951.539055572" />
		</plan>

	</person>

<!-- ====================================================================== -->

	<person id="12052000_12052000_1008">
		<plan selected="yes">
			<act type="home" x="454635.7365508042" y="5740286.18100591" end_time="08:29:22" />
			<leg mode="car">
			</leg>
			<act type="work" x="452754.0623619259" y="5730531.694669158" end_time="16:15:20" />
			<leg mode="car">
			</leg>
			<act type="home" x="454635.7365508042" y="5740286.18100591" />
		</plan>

	</person>

<!-- ====================================================================== -->

	<person id="12052000_12052000_1009">
		<plan selected="yes">
			<act type="home" x="453917.57396971586" y="5729419.892689186" end_time="07:55:35" />
			<leg mode="car">
			</leg>
			<act type="work" x="457191.0952803697" y="5735305.132233912" end_time="15:40:47" />
			<leg mode="car">
			</leg>
			<act type="home" x="453917.57396971586" y="5729419.892689186" />
		</plan>

	</person>

<!-- ====================================================================== -->

	<person id="12052000_12052000_101">
		<plan selected="yes">
			<act type="home" x="452842.7124949479" y="5729046.2202374" end_time="06:32:30" />
			<leg mode="car">
			</leg>
			<act type="kindergarten1" x="453611.2199120254" y="5730625.652979299" max_dur="00:06:04" />
			<leg mode="car">
			</leg>
			<act type="work" x="456524.84871970245" y="5734442.331670654" end_time="14:58:39" />
			<leg mode="car">
			</leg>
			<act type="kindergarten2" x="453611.2199120254" y="5730625.652979299" max_dur="00:09:32" />
			<leg mode="car">
			</leg>
			<act type="home" x="452842.7124949479" y="5729046.2202374" />
		</plan>

	</person>

<!-- ====================================================================== -->

	<person id="12052000_12052000_1010">
		<plan selected="yes">
			<act type="home" x="451528.78911841626" y="5738693.151289274" end_time="07:04:21" />
			<leg mode="car">
			</leg>
			<act type="work" x="464249.86465254845" y="5737297.677393366" end_time="15:00:11" />
			<leg mode="car">
			</leg>
			<act type="home" x="451528.78911841626" y="5738693.151289274" />
		</plan>

	</person>

<!-- ====================================================================== -->

	<person id="12052000_12052000_1011">
		<plan selected="yes">
			<act type="home" x="453972.05907830247" y="5730959.248144004" end_time="06:46:20" />
			<leg mode="car">
			</leg>
			<act type="kindergarten1" x="453868.6396599353" y="5730500.609266827" max_dur="00:06:43" />
			<leg mode="car">
			</leg>
			<act type="work" x="459054.67002814054" y="5735290.985663842" end_time="14:55:26" />
			<leg mode="car">
			</leg>
			<act type="kindergarten2" x="453868.6396599353" y="5730500.609266827" max_dur="00:06:47" />
			<leg mode="car">
			</leg>
			<act type="home" x="453972.05907830247" y="5730959.248144004" />
		</plan>

	</person>

<!-- ====================================================================== -->

	<person id="12052000_12052000_1012">
		<plan selected="yes">
			<act type="home" x="453953.73178571457" y="5730333.535980293" end_time="08:08:21" />
			<leg mode="car">
			</leg>
			<act type="work" x="464218.01091004687" y="5737790.158888065" end_time="15:46:05" />
			<leg mode="car">
			</leg>
			<act type="home" x="453953.73178571457" y="5730333.535980293" />
		</plan>

	</person>

<!-- ====================================================================== -->

	<person id="12052000_12052000_1013">
		<plan selected="yes">
			<act type="home" x="453959.22226173506" y="5730435.543787946" end_time="08:03:16" />
			<leg mode="car">
			</leg>
			<act type="kindergarten1" x="453868.6396599353" y="5730500.609266827" max_dur="00:05:12" />
			<leg mode="car">
			</leg>
			<act type="work" x="454360.9895996661" y="5736369.645210093" end_time="16:28:25" />
			<leg mode="car">
			</leg>
			<act type="kindergarten2" x="453868.6396599353" y="5730500.609266827" max_dur="00:08:55" />
			<leg mode="car">
			</leg>
			<act type="home" x="453959.22226173506" y="5730435.543787946" />
		</plan>

	</person>

<!-- ====================================================================== -->

	<person id="12052000_12052000_1014">
		<plan selected="yes">
			<act type="home" x="454314.6570684168" y="5732929.237717452" end_time="08:12:31" />
			<leg mode="car">
			</leg>
			<act type="work" x="463903.76279126666" y="5737294.422032692" end_time="16:32:01" />
			<leg mode="car">
			</leg>
			<act type="home" x="454314.6570684168" y="5732929.237717452" />
		</plan>

	</person>

<!-- ====================================================================== -->

	<person id="12052000_12052000_1015">
		<plan selected="yes">
			<act type="home" x="452126.739036075" y="5733120.447081252" end_time="08:10:56" />
			<leg mode="car">
			</leg>
			<act type="work" x="454651.050876495" y="5736099.134640033" end_time="15:46:04" />
			<leg mode="car">
			</leg>
			<act type="home" x="452126.739036075" y="5733120.447081252" />
		</plan>

	</person>

<!-- ====================================================================== -->

	<person id="12052000_12052000_1016">
		<plan selected="yes">
			<act type="home" x="451050.2118541319" y="5734931.086358801" end_time="08:22:47" />
			<leg mode="car">
			</leg>
			<act type="work" x="456991.78514447314" y="5736155.805339545" end_time="16:33:54" />
			<leg mode="car">
			</leg>
			<act type="home" x="451050.2118541319" y="5734931.086358801" />
		</plan>

	</person>

<!-- ====================================================================== -->

	<person id="12052000_12052000_1017">
		<plan selected="yes">
			<act type="home" x="452221.74317144" y="5738338.458720458" end_time="06:43:16" />
			<leg mode="car">
			</leg>
			<act type="work" x="456219.633104398" y="5734537.529573974" end_time="14:51:50" />
			<leg mode="car">
			</leg>
			<act type="home" x="452221.74317144" y="5738338.458720458" />
		</plan>

	</person>

<!-- ====================================================================== -->

	<person id="12052000_12052000_1018">
		<plan selected="yes">
			<act type="home" x="458373.03568073845" y="5734873.092122796" end_time="08:07:15" />
			<leg mode="car">
			</leg>
			<act type="kindergarten1" x="455648.1333556005" y="5734859.361367292" max_dur="00:09:16" />
			<leg mode="car">
			</leg>
			<act type="work" x="452478.71148965275" y="5733884.124104603" end_time="15:52:30" />
			<leg mode="car">
			</leg>
			<act type="kindergarten2" x="455648.1333556005" y="5734859.361367292" max_dur="00:05:19" />
			<leg mode="car">
			</leg>
			<act type="home" x="458373.03568073845" y="5734873.092122796" />
		</plan>

	</person>

<!-- ====================================================================== -->

	<person id="12052000_12052000_1019">
		<plan selected="yes">
			<act type="home" x="453779.63208170224" y="5736996.3367066085" end_time="06:46:08" />
			<leg mode="car">
			</leg>
			<act type="work" x="456494.47776277695" y="5736016.198252092" end_time="14:48:02" />
			<leg mode="car">
			</leg>
			<act type="home" x="453779.63208170224" y="5736996.3367066085" />
		</plan>

	</person>

<!-- ====================================================================== -->

	<person id="12052000_12052000_102">
		<plan selected="yes">
			<act type="home" x="456128.72464600735" y="5731717.628559521" end_time="08:22:00" />
			<leg mode="car">
			</leg>
			<act type="work" x="457873.8179083852" y="5735331.721833884" end_time="16:36:05" />
			<leg mode="car">
			</leg>
			<act type="home" x="456128.72464600735" y="5731717.628559521" end_time="17:59:51" />
			<leg mode="car">
			</leg>
			<act type="shopping" x="455006.52115909086" y="5734909.411959048" end_time="19:07:25" />
			<leg mode="car">
			</leg>
			<act type="home" x="456128.72464600735" y="5731717.628559521" />
		</plan>

	</person>

<!-- ====================================================================== -->

	<person id="12052000_12052000_1020">
		<plan selected="yes">
			<act type="home" x="453490.5983824152" y="5734026.885621952" end_time="08:24:14" />
			<leg mode="car">
			</leg>
			<act type="work" x="463851.32450852136" y="5737136.959206006" end_time="15:54:26" />
			<leg mode="car">
			</leg>
			<act type="home" x="453490.5983824152" y="5734026.885621952" />
		</plan>

	</person>

<!-- ====================================================================== -->

	<person id="12052000_12052000_1021">
		<plan selected="yes">
			<act type="home" x="454749.24790925503" y="5740935.196919344" end_time="07:58:44" />
			<leg mode="car">
			</leg>
			<act type="work" x="456927.6829085481" y="5735682.866828685" end_time="15:44:32" />
			<leg mode="car">
			</leg>
			<act type="home" x="454749.24790925503" y="5740935.196919344" end_time="16:54:39" />
			<leg mode="car">
			</leg>
			<act type="shopping" x="454706.35835333547" y="5737407.278172629" end_time="17:30:48" />
			<leg mode="car">
			</leg>
			<act type="home" x="454749.24790925503" y="5740935.196919344" />
		</plan>

	</person>

<!-- ====================================================================== -->

	<person id="12052000_12052000_1022">
		<plan selected="yes">
			<act type="home" x="455685.1121527721" y="5731000.36633668" end_time="08:17:26" />
			<leg mode="car">
			</leg>
			<act type="work" x="463923.71673714014" y="5737418.694774246" end_time="16:13:30" />
			<leg mode="car">
			</leg>
			<act type="home" x="455685.1121527721" y="5731000.36633668" />
		</plan>

	</person>

<!-- ====================================================================== -->

	<person id="12052000_12052000_1023">
		<plan selected="yes">
			<act type="home" x="455480.669186744" y="5739360.322359955" end_time="08:24:12" />
			<leg mode="car">
			</leg>
			<act type="work" x="452064.1884348525" y="5736441.441322121" end_time="16:43:02" />
			<leg mode="car">
			</leg>
			<act type="home" x="455480.669186744" y="5739360.322359955" />
		</plan>

	</person>

<!-- ====================================================================== -->

	<person id="12052000_12052000_1024">
		<plan selected="yes">
			<act type="home" x="453263.04908290226" y="5733105.893461177" end_time="07:11:48" />
			<leg mode="car">
			</leg>
			<act type="work" x="456926.80404751375" y="5735180.521417906" end_time="14:48:05" />
			<leg mode="car">
			</leg>
			<act type="home" x="453263.04908290226" y="5733105.893461177" />
		</plan>

	</person>

<!-- ====================================================================== -->

	<person id="12052000_12052000_1025">
		<plan selected="yes">
			<act type="home" x="458574.8665894396" y="5734396.380481077" end_time="08:01:40" />
			<leg mode="car">
			</leg>
			<act type="work" x="457222.33982699283" y="5735256.729199127" end_time="15:59:47" />
			<leg mode="car">
			</leg>
			<act type="home" x="458574.8665894396" y="5734396.380481077" />
		</plan>

	</person>

<!-- ====================================================================== -->

	<person id="12052000_12052000_1026">
		<plan selected="yes">
			<act type="home" x="459541.7170764163" y="5734699.951895188" end_time="07:12:15" />
			<leg mode="car">
			</leg>
			<act type="work" x="456872.84036395955" y="5735601.447573494" end_time="14:59:54" />
			<leg mode="car">
			</leg>
			<act type="home" x="459541.7170764163" y="5734699.951895188" end_time="16:11:45" />
			<leg mode="car">
			</leg>
			<act type="shopping" x="455006.52115909086" y="5734909.411959048" end_time="17:17:26" />
			<leg mode="car">
			</leg>
			<act type="home" x="459541.7170764163" y="5734699.951895188" />
		</plan>

	</person>

<!-- ====================================================================== -->

	<person id="12052000_12052000_1027">
		<plan selected="yes">
			<act type="home" x="459671.65545408794" y="5729884.3854713375" end_time="06:36:02" />
			<leg mode="car">
			</leg>
			<act type="work" x="464231.4170576957" y="5737407.498978065" end_time="14:49:37" />
			<leg mode="car">
			</leg>
			<act type="home" x="459671.65545408794" y="5729884.3854713375" />
		</plan>

	</person>

<!-- ====================================================================== -->

	<person id="12052000_12052000_1028">
		<plan selected="yes">
			<act type="home" x="454951.0660191271" y="5741851.522022446" end_time="07:55:49" />
			<leg mode="car">
			</leg>
			<act type="kindergarten1" x="455278.2106357176" y="5737325.337422545" max_dur="00:08:33" />
			<leg mode="car">
			</leg>
			<act type="work" x="456896.5418376885" y="5735580.016470418" end_time="15:55:56" />
			<leg mode="car">
			</leg>
			<act type="kindergarten2" x="455278.2106357176" y="5737325.337422545" max_dur="00:09:49" />
			<leg mode="car">
			</leg>
			<act type="home" x="454951.0660191271" y="5741851.522022446" />
		</plan>

	</person>

<!-- ====================================================================== -->

	<person id="12052000_12052000_1029">
		<plan selected="yes">
			<act type="home" x="451510.7473744456" y="5734339.36563962" end_time="08:11:54" />
			<leg mode="car">
			</leg>
			<act type="work" x="457524.12398138206" y="5735671.684014686" end_time="16:04:51" />
			<leg mode="car">
			</leg>
			<act type="home" x="451510.7473744456" y="5734339.36563962" />
		</plan>

	</person>

<!-- ====================================================================== -->

	<person id="12052000_12052000_103">
		<plan selected="yes">
			<act type="home" x="456036.23998836137" y="5730021.027124136" end_time="06:57:00" />
			<leg mode="car">
			</leg>
			<act type="work" x="451198.4483527274" y="5736048.161370719" end_time="14:41:31" />
			<leg mode="car">
			</leg>
			<act type="home" x="456036.23998836137" y="5730021.027124136" end_time="15:47:26" />
			<leg mode="car">
			</leg>
			<act type="shopping" x="453094.89469849714" y="5729894.575056443" end_time="16:26:26" />
			<leg mode="car">
			</leg>
			<act type="home" x="456036.23998836137" y="5730021.027124136" />
		</plan>

	</person>

<!-- ====================================================================== -->

	<person id="12052000_12052000_1030">
		<plan selected="yes">
			<act type="home" x="454450.14227699" y="5744035.032287878" end_time="07:54:54" />
			<leg mode="car">
			</leg>
			<act type="work" x="455863.6071199424" y="5735765.088081948" end_time="15:41:59" />
			<leg mode="car">
			</leg>
			<act type="home" x="454450.14227699" y="5744035.032287878" />
		</plan>

	</person>

<!-- ====================================================================== -->

	<person id="12052000_12052000_1031">
		<plan selected="yes">
			<act type="home" x="453762.0113866654" y="5731268.433574471" end_time="07:59:31" />
			<leg mode="car">
			</leg>
			<act type="work" x="456986.4679184376" y="5735137.304682112" end_time="15:54:39" />
			<leg mode="car">
			</leg>
			<act type="home" x="453762.0113866654" y="5731268.433574471" end_time="17:07:31" />
			<leg mode="car">
			</leg>
			<act type="shopping" x="453094.89469849714" y="5729894.575056443" end_time="18:35:26" />
			<leg mode="car">
			</leg>
			<act type="home" x="453762.0113866654" y="5731268.433574471" />
		</plan>

	</person>

<!-- ====================================================================== -->

	<person id="12052000_12052000_1032">
		<plan selected="yes">
			<act type="home" x="454989.81721053564" y="5735208.048700365" end_time="07:46:37" />
			<leg mode="car">
			</leg>
			<act type="work" x="456514.6031371336" y="5733427.80166496" end_time="15:40:54" />
			<leg mode="car">
			</leg>
			<act type="home" x="454989.81721053564" y="5735208.048700365" />
		</plan>

	</person>

<!-- ====================================================================== -->

	<person id="12052000_12052000_1033">
		<plan selected="yes">
			<act type="home" x="452368.737277789" y="5738430.057402681" end_time="07:19:42" />
			<leg mode="car">
			</leg>
			<act type="work" x="464282.141882752" y="5738353.901837928" end_time="15:19:02" />
			<leg mode="car">
			</leg>
			<act type="home" x="452368.737277789" y="5738430.057402681" />
		</plan>

	</person>

<!-- ====================================================================== -->

	<person id="12052000_12052000_1034">
		<plan selected="yes">
			<act type="home" x="454583.6558730146" y="5735660.192004012" end_time="07:31:05" />
			<leg mode="car">
			</leg>
			<act type="work" x="452830.19115307997" y="5736604.18038609" end_time="15:19:36" />
			<leg mode="car">
			</leg>
			<act type="home" x="454583.6558730146" y="5735660.192004012" end_time="16:25:19" />
			<leg mode="car">
			</leg>
			<act type="shopping" x="454646.6642975622" y="5735949.699132019" end_time="17:07:46" />
			<leg mode="car">
			</leg>
			<act type="home" x="454583.6558730146" y="5735660.192004012" />
		</plan>

	</person>

<!-- ====================================================================== -->

	<person id="12052000_12052000_1035">
		<plan selected="yes">
			<act type="home" x="456309.10246250045" y="5731460.042396325" end_time="08:24:47" />
			<leg mode="car">
			</leg>
			<act type="work" x="454642.8981246886" y="5736192.478179876" end_time="16:47:50" />
			<leg mode="car">
			</leg>
			<act type="home" x="456309.10246250045" y="5731460.042396325" />
		</plan>

	</person>

<!-- ====================================================================== -->

	<person id="12052000_12052000_1036">
		<plan selected="yes">
			<act type="home" x="453908.4667156756" y="5737108.732864772" end_time="07:29:44" />
			<leg mode="car">
			</leg>
			<act type="work" x="454721.9078901769" y="5737210.609653381" end_time="15:05:34" />
			<leg mode="car">
			</leg>
			<act type="home" x="453908.4667156756" y="5737108.732864772" end_time="16:06:46" />
			<leg mode="car">
			</leg>
			<act type="shopping" x="454706.35835333547" y="5737407.278172629" end_time="17:02:27" />
			<leg mode="car">
			</leg>
			<act type="home" x="453908.4667156756" y="5737108.732864772" />
		</plan>

	</person>

<!-- ====================================================================== -->

	<person id="12052000_12052000_1037">
		<plan selected="yes">
			<act type="home" x="457667.05982148554" y="5740001.811070279" end_time="06:40:22" />
			<leg mode="car">
			</leg>
			<act type="kindergarten1" x="455278.2106357176" y="5737325.337422545" max_dur="00:07:33" />
			<leg mode="car">
			</leg>
			<act type="work" x="463944.15167923394" y="5737590.532224071" end_time="14:58:47" />
			<leg mode="car">
			</leg>
			<act type="kindergarten2" x="455278.2106357176" y="5737325.337422545" max_dur="00:09:47" />
			<leg mode="car">
			</leg>
			<act type="home" x="457667.05982148554" y="5740001.811070279" />
		</plan>

	</person>

<!-- ====================================================================== -->

	<person id="12052000_12052000_1038">
		<plan selected="yes">
			<act type="home" x="452021.2514088287" y="5739297.595642092" end_time="08:09:13" />
			<leg mode="car">
			</leg>
			<act type="work" x="452596.9672896157" y="5729721.868579758" end_time="16:21:08" />
			<leg mode="car">
			</leg>
			<act type="home" x="452021.2514088287" y="5739297.595642092" />
		</plan>

	</person>

<!-- ====================================================================== -->

	<person id="12052000_12052000_1039">
		<plan selected="yes">
			<act type="home" x="454493.6718562092" y="5730220.733998904" end_time="08:07:50" />
			<leg mode="car">
			</leg>
			<act type="work" x="451974.23028977436" y="5736632.055129272" end_time="16:14:49" />
			<leg mode="car">
			</leg>
			<act type="home" x="454493.6718562092" y="5730220.733998904" />
		</plan>

	</person>

<!-- ====================================================================== -->

	<person id="12052000_12052000_104">
		<plan selected="yes">
			<act type="home" x="452582.1627325561" y="5732861.455163554" end_time="08:19:52" />
			<leg mode="car">
			</leg>
			<act type="work" x="456438.85699725477" y="5735742.801542825" end_time="16:14:13" />
			<leg mode="car">
			</leg>
			<act type="home" x="452582.1627325561" y="5732861.455163554" />
		</plan>

	</person>

<!-- ====================================================================== -->

	<person id="12052000_12052000_1040">
		<plan selected="yes">
			<act type="home" x="453640.235683084" y="5731937.953854258" end_time="08:00:36" />
			<leg mode="car">
			</leg>
			<act type="work" x="451761.89858834364" y="5736159.489178553" end_time="15:34:13" />
			<leg mode="car">
			</leg>
			<act type="home" x="453640.235683084" y="5731937.953854258" />
		</plan>

	</person>

<!-- ====================================================================== -->

	<person id="12052000_12052000_1041">
		<plan selected="yes">
			<act type="home" x="454233.61535113235" y="5735009.124266851" end_time="08:08:55" />
			<leg mode="car">
			</leg>
			<act type="work" x="453070.5375098292" y="5736754.2822387535" end_time="15:46:41" />
			<leg mode="car">
			</leg>
			<act type="home" x="454233.61535113235" y="5735009.124266851" />
		</plan>

	</person>

<!-- ====================================================================== -->

	<person id="12052000_12052000_1042">
		<plan selected="yes">
			<act type="home" x="456685.52884333977" y="5729833.273509046" end_time="07:48:45" />
			<leg mode="car">
			</leg>
			<act type="work" x="456109.36940003315" y="5734903.230823693" end_time="15:43:56" />
			<leg mode="car">
			</leg>
			<act type="home" x="456685.52884333977" y="5729833.273509046" end_time="17:06:46" />
			<leg mode="car">
			</leg>
			<act type="shopping" x="453094.89469849714" y="5729894.575056443" end_time="18:08:17" />
			<leg mode="car">
			</leg>
			<act type="home" x="456685.52884333977" y="5729833.273509046" />
		</plan>

	</person>

<!-- ====================================================================== -->

	<person id="12052000_12052000_1043">
		<plan selected="yes">
			<act type="home" x="453472.2502718047" y="5733033.816845723" end_time="06:37:37" />
			<leg mode="car">
			</leg>
			<act type="work" x="457213.51607153984" y="5735992.936105697" end_time="14:14:53" />
			<leg mode="car">
			</leg>
			<act type="home" x="453472.2502718047" y="5733033.816845723" end_time="15:42:59" />
			<leg mode="car">
			</leg>
			<act type="shopping" x="452524.2015285962" y="5732810.905557928" end_time="16:41:43" />
			<leg mode="car">
			</leg>
			<act type="home" x="453472.2502718047" y="5733033.816845723" />
		</plan>

	</person>

<!-- ====================================================================== -->

	<person id="12052000_12052000_1044">
		<plan selected="yes">
			<act type="home" x="453704.2442889459" y="5730523.686315713" end_time="07:56:52" />
			<leg mode="car">
			</leg>
			<act type="kindergarten1" x="453611.2199120254" y="5730625.652979299" max_dur="00:07:31" />
			<leg mode="car">
			</leg>